// Processing 'dalvik-opcodes/out/classes_dasm/dot/junit/opcodes/sput/d/T_sput_3.dex'...
// Opened 'dalvik-opcodes/out/classes_dasm/dot/junit/opcodes/sput/d/T_sput_3.dex', DEX version '035'
// DEX file header:
// parsed: offset 0, len 8: magic               : 'dex
// 035'
    64 65 78 0A 30 33 35 00 
// parsed: offset 8, len 4: checksum            : 07553f66
    66 3F 55 07 
// parsed: offset 12, len 20: signature           : 2441...71d9
    24 41 F7 4C E7 A3 98 B5 AC 67 0E F8 6B D1 13 E3 DD 10 71 D9 
// parsed: offset 32, len 4: file_size           : 540
    1C 02 00 00 
// parsed: offset 36, len 4: header_size         : 112
    70 00 00 00 
// parsed: offset 40, len 4: endian_tag          : 0x12345678
    78 56 34 12 
// parsed: offset 44, len 4: link_size           : 0
    00 00 00 00 
// parsed: offset 48, len 4: link_off            : 0 (0x000000)
    00 00 00 00 
// parsed: offset 52, len 4: map_off             : 404 (0x000194)
    94 01 00 00 
// parsed: offset 56, len 4: string_ids_size     : 8
    08 00 00 00 
// parsed: offset 60, len 4: string_ids_off      : 112 (0x000070)
    70 00 00 00 
// parsed: offset 64, len 4: type_ids_size       : 4
    04 00 00 00 
// parsed: offset 68, len 4: type_ids_off        : 144 (0x000090)
    90 00 00 00 
// parsed: offset 72, len 4: proto_ids_size      : 1
    01 00 00 00 
// parsed: offset 76, len 4: proto_ids_off       : 160 (0x0000a0)
    A0 00 00 00 
// parsed: offset 80, len 4: field_ids_size      : 1
    01 00 00 00 
// parsed: offset 84, len 4: field_ids_off       : 172 (0x0000ac)
    AC 00 00 00 
// parsed: offset 88, len 4: method_ids_size     : 3
    03 00 00 00 
// parsed: offset 92, len 4: method_ids_off      : 180 (0x0000b4)
    B4 00 00 00 
// parsed: offset 96, len 4: class_defs_size     : 1
    01 00 00 00 
// parsed: offset 100, len 4: class_defs_off      : 204 (0x0000cc)
    CC 00 00 00 
// parsed: offset 104, len 4: data_size           : 304
    30 01 00 00 
// parsed: offset 108, len 4: data_off            : 236 (0x0000ec)
    EC 00 00 00 
// 
// string_ids:
// parsed: offset 112, len 4: [0] string_data_off: 288 (0x000120) "<init>"
    20 01 00 00 
// parsed: offset 116, len 4: [1] string_data_off: 296 (0x000128) "I"
    28 01 00 00 
// parsed: offset 120, len 4: [2] string_data_off: 299 (0x00012b) "Ldot/junit/opcodes/sput/d/T_sput_3;"
    2B 01 00 00 
// parsed: offset 124, len 4: [3] string_data_off: 336 (0x000150) "Ljava/lang/Object;"
    50 01 00 00 
// parsed: offset 128, len 4: [4] string_data_off: 356 (0x000164) "T_sput_3.java"
    64 01 00 00 
// parsed: offset 132, len 4: [5] string_data_off: 371 (0x000173) "V"
    73 01 00 00 
// parsed: offset 136, len 4: [6] string_data_off: 374 (0x000176) "run"
    76 01 00 00 
// parsed: offset 140, len 4: [7] string_data_off: 379 (0x00017b) "st_i1"
    7B 01 00 00 

// type_ids:
// parsed: offset 144, len 4: [0] descriptor_idx: 1 (0x000001) "I"
    01 00 00 00 
// parsed: offset 148, len 4: [1] descriptor_idx: 2 (0x000002) "Ldot/junit/opcodes/sput/d/T_sput_3;"
    02 00 00 00 
// parsed: offset 152, len 4: [2] descriptor_idx: 3 (0x000003) "Ljava/lang/Object;"
    03 00 00 00 
// parsed: offset 156, len 4: [3] descriptor_idx: 5 (0x000005) "V"
    05 00 00 00 

// proto_ids:
// parsed: offset 160, len 12: [0] 
//     shorty_idx: 5 (0x000005) "V"
//     return_type_idx: 3 (0x000003) "V"
//     parameters_off: 0 (0x000000)
    05 00 00 00 03 00 00 00 00 00 00 00 

// field_ids:
// parsed: offset 172, len 8: [0] class_idx: 1 (0x000001)  type_idx: 0 (0x000000) name_idx: 7 (0x000007) "st_i1"
    01 00 00 00 07 00 00 00 

// methods_ids:
// parsed: offset 180, len 8: [0] class_idx: 1 (0x000001)  proto_idx: 0 (0x000000) name_idx: 0 (0x000000) "<init>"
    01 00 00 00 00 00 00 00 
// parsed: offset 188, len 8: [1] class_idx: 1 (0x000001)  proto_idx: 0 (0x000000) name_idx: 6 (0x000006) "run"
    01 00 00 00 06 00 00 00 
// parsed: offset 196, len 8: [2] class_idx: 2 (0x000002)  proto_idx: 0 (0x000000) name_idx: 0 (0x000000) "<init>"
    02 00 00 00 00 00 00 00 

// class_defs:
// parsed: offset 204, len 32: Class [0]
//     class_idx: 1 "Ldot/junit/opcodes/sput/d/T_sput_3;"
//     access_flags: 0x000001 (PUBLIC)
//     superclass_idx: 2 "Ljava/lang/Object;"
//     interfaces_off: 0 (0x000000)
//     source_file_idx: 4 "T_sput_3.java"
//     annotations_off: 0 (0x000000)
//     class_data_off: 386 (0x000182)
//     static_values_off: 0 (0x000000)
    01 00 00 00 01 00 00 00 02 00 00 00 00 00 00 00 04 00 00 00 00 00 00 00 82 01 00 00 00 00 00 00 
// data_section:
// CODE_ITEM for "dot.junit.opcodes.sput.d.T_sput_3.<init>"
    // parsed: offset 236, len 2: registers_size: 1
        01 00 
    // parsed: offset 238, len 2: ins_size: 1
        01 00 
    // parsed: offset 240, len 2: outs_size: 1
        01 00 
    // parsed: offset 242, len 2: tries_size: 0
        00 00 
    // parsed: offset 244, len 4: debug_info_off: 0 (0x000000)
        00 00 00 00 
    // parsed: offset 248, len 4: insns_size: 4
        04 00 00 00 
    // insns:
        // parsed: offset 252, len 6: |0000: invoke-direct {v0}, Ljava/lang/Object;.<init>:()V // method@0002
            70 10 02 00 00 00 
        // parsed: offset 258, len 2: |0003: return-void
            0E 00 
    // tries: 
    // handlers: 
// CODE_ITEM for "dot.junit.opcodes.sput.d.T_sput_3.run"
    // parsed: offset 260, len 2: registers_size: 3
        03 00 
    // parsed: offset 262, len 2: ins_size: 1
        01 00 
    // parsed: offset 264, len 2: outs_size: 0
        00 00 
    // parsed: offset 266, len 2: tries_size: 0
        00 00 
    // parsed: offset 268, len 4: debug_info_off: 0 (0x000000)
        00 00 00 00 
    // parsed: offset 272, len 4: insns_size: 6
        06 00 00 00 
    // insns:
        // parsed: offset 276, len 6: |0000: const v0, #float 0.000000 // #0x000004d2 int
            14 00 D2 04 00 00 
        // parsed: offset 282, len 4: |0003: sput v0, Ldot/junit/opcodes/sput/d/T_sput_3;.st_i1:I // field@0000
//@mod            67 00 00 00 
            67 00 00 01 
        // parsed: offset 286, len 2: |0005: return-void
            0E 00 
    // tries: 
    // handlers: 
// parsed: offset 288, len 8: TYPE_STRING_DATA_ITEM [0] "<init>"
    06 3C 69 6E 69 74 3E 00 
// parsed: offset 296, len 3: TYPE_STRING_DATA_ITEM [1] "I"
    01 49 00 
// parsed: offset 299, len 37: TYPE_STRING_DATA_ITEM [2] "Ldot/junit/opcodes/sput/d/T_sput_3;"
    23 4C 64 6F 74 2F 6A 75 6E 69 74 2F 6F 70 63 6F 64 65 73 2F 73 70 75 74 2F 64 2F 54 5F 73 70 75 74 5F 33 3B 00 
// parsed: offset 336, len 20: TYPE_STRING_DATA_ITEM [3] "Ljava/lang/Object;"
    12 4C 6A 61 76 61 2F 6C 61 6E 67 2F 4F 62 6A 65 63 74 3B 00 
// parsed: offset 356, len 15: TYPE_STRING_DATA_ITEM [4] "T_sput_3.java"
    0D 54 5F 73 70 75 74 5F 33 2E 6A 61 76 61 00 
// parsed: offset 371, len 3: TYPE_STRING_DATA_ITEM [5] "V"
    01 56 00 
// parsed: offset 374, len 5: TYPE_STRING_DATA_ITEM [6] "run"
    03 72 75 6E 00 
// parsed: offset 379, len 7: TYPE_STRING_DATA_ITEM [7] "st_i1"
    05 73 74 5F 69 31 00 
// CLASS_DATA_ITEM for class [0] "Ldot/junit/opcodes/sput/d/T_sput_3;"
    // parsed: offset 386, len 1: static_fields_size: 1
        01 
    // parsed: offset 387, len 1: instance_fields_size: 0
        00 
    // parsed: offset 388, len 1: direct_methods_size: 1
        01 
    // parsed: offset 389, len 1: virtual_methods_size: 1
        01 
    // static_fields:
        // field [0]:
            // parsed: offset 390, len 1: field_idx_diff: 0 (field_idx: 0 "st_i1")
                00 
            // parsed: offset 391, len 1: access_flags: 0x000009 (PUBLIC STATIC)
                09 
    // instance_fields:
    // direct_methods:
        // method [0]:
            // parsed: offset 392, len 1: method_idx_diff: 0 (method_idx: 0 "<init>")
                00 
            // parsed: offset 393, len 3: access_flags: 0x010001 (PUBLIC CONSTRUCTOR)
                81 80 04 
            // parsed: offset 396, len 2: code_off: 236 (0x0000ec)
                EC 01 
    // virtual_methods:
        // method [0]:
            // parsed: offset 398, len 1: method_idx_diff: 1 (method_idx: 1 "run")
                01 
            // parsed: offset 399, len 1: access_flags: 0x000001 (PUBLIC)
                01 
            // parsed: offset 400, len 2: code_off: 260 (0x000104)
                84 02 
// parsed: offset 402, len 2: PADDING
    00 00 
// map_list:
    // parsed: offset 404, len 4: size: 11
        0B 00 00 00 
    // parsed: offset 408, len 12: [0] type: 0x0000 TYPE_HEADER_ITEM
    //      unused: 0
    //      size: 1
    //      offset: 0 (0x000000)
        00 00 00 00 01 00 00 00 00 00 00 00 
    // parsed: offset 420, len 12: [1] type: 0x0001 TYPE_STRING_ID_ITEM
    //      unused: 0
    //      size: 8
    //      offset: 112 (0x000070)
        01 00 00 00 08 00 00 00 70 00 00 00 
    // parsed: offset 432, len 12: [2] type: 0x0002 TYPE_TYPE_ID_ITEM
    //      unused: 0
    //      size: 4
    //      offset: 144 (0x000090)
        02 00 00 00 04 00 00 00 90 00 00 00 
    // parsed: offset 444, len 12: [3] type: 0x0003 TYPE_PROTO_ID_ITEM
    //      unused: 0
    //      size: 1
    //      offset: 160 (0x0000a0)
        03 00 00 00 01 00 00 00 A0 00 00 00 
    // parsed: offset 456, len 12: [4] type: 0x0004 TYPE_FIELD_ID_ITEM
    //      unused: 0
    //      size: 1
    //      offset: 172 (0x0000ac)
        04 00 00 00 01 00 00 00 AC 00 00 00 
    // parsed: offset 468, len 12: [5] type: 0x0005 TYPE_METHOD_ID_ITEM
    //      unused: 0
    //      size: 3
    //      offset: 180 (0x0000b4)
        05 00 00 00 03 00 00 00 B4 00 00 00 
    // parsed: offset 480, len 12: [6] type: 0x0006 TYPE_CLASS_DEF_ITEM
    //      unused: 0
    //      size: 1
    //      offset: 204 (0x0000cc)
        06 00 00 00 01 00 00 00 CC 00 00 00 
    // parsed: offset 492, len 12: [7] type: 0x2001 TYPE_CODE_ITEM
    //      unused: 0
    //      size: 2
    //      offset: 236 (0x0000ec)
        01 20 00 00 02 00 00 00 EC 00 00 00 
    // parsed: offset 504, len 12: [8] type: 0x2002 TYPE_STRING_DATA_ITEM
    //      unused: 0
    //      size: 8
    //      offset: 288 (0x000120)
        02 20 00 00 08 00 00 00 20 01 00 00 
    // parsed: offset 516, len 12: [9] type: 0x2000 TYPE_CLASS_DATA_ITEM
    //      unused: 0
    //      size: 1
    //      offset: 386 (0x000182)
        00 20 00 00 01 00 00 00 82 01 00 00 
    // parsed: offset 528, len 12: [10] type: 0x1000 TYPE_MAP_LIST
    //      unused: 0
    //      size: 1
    //      offset: 404 (0x000194)
        00 10 00 00 01 00 00 00 94 01 00 00 
