// Processing 'out/classes_dasm/dot/junit/format/f1/d/T_f1_8.dex'...
// Opened 'out/classes_dasm/dot/junit/format/f1/d/T_f1_8.dex', DEX version '035'
// DEX file header:
// parsed: offset 0, len 8: magic               : 'dex
// 035'
    64 65 78 0A 30 33 35 00 
// parsed: offset 8, len 4: checksum            : bd8b37bf
    BF 37 8B BD 
// parsed: offset 12, len 20: signature           : 1091...62b1
    10 91 A3 C7 70 2E 36 E5 FD 30 D9 9A 80 EE 8A CC EC BA 62 B1 
// parsed: offset 32, len 4: file_size           : 500
    F4 01 00 00 
// parsed: offset 36, len 4: header_size         : 112
    70 00 00 00 
// parsed: offset 40, len 4: endian_tag          : 0x12345678
    78 56 34 12 
// parsed: offset 44, len 4: link_size           : 0
    00 00 00 00 
// parsed: offset 48, len 4: link_off            : 0 (0x000000)
    00 00 00 00 
// parsed: offset 52, len 4: map_off             : 376 (0x000178)
    78 01 00 00 
// parsed: offset 56, len 4: string_ids_size     : 6
    06 00 00 00 
// parsed: offset 60, len 4: string_ids_off      : 112 (0x000070)
    70 00 00 00 
// parsed: offset 64, len 4: type_ids_size       : 3
    03 00 00 00 
// parsed: offset 68, len 4: type_ids_off        : 136 (0x000088)
    88 00 00 00 
// parsed: offset 72, len 4: proto_ids_size      : 1
    01 00 00 00 
// parsed: offset 76, len 4: proto_ids_off       : 148 (0x000094)
    94 00 00 00 
// parsed: offset 80, len 4: field_ids_size      : 0
    00 00 00 00 
// parsed: offset 84, len 4: field_ids_off       : 0 (0x000000)
    00 00 00 00 
// parsed: offset 88, len 4: method_ids_size     : 3
    03 00 00 00 
// parsed: offset 92, len 4: method_ids_off      : 160 (0x0000a0)
    A0 00 00 00 
// parsed: offset 96, len 4: class_defs_size     : 1
//@mod    01 00 00 00 
    00 00 00 00 
// parsed: offset 100, len 4: class_defs_off      : 184 (0x0000b8)
    B8 00 00 00 
// parsed: offset 104, len 4: data_size           : 284
    1C 01 00 00 
// parsed: offset 108, len 4: data_off            : 216 (0x0000d8)
    D8 00 00 00 
// 
// string_ids:
// parsed: offset 112, len 4: [0] string_data_off: 280 (0x000118) "<init>"
    18 01 00 00 
// parsed: offset 116, len 4: [1] string_data_off: 288 (0x000120) "Ldot/junit/format/f1/d/T_f1_8;"
    20 01 00 00 
// parsed: offset 120, len 4: [2] string_data_off: 320 (0x000140) "Ljava/lang/Object;"
    40 01 00 00 
// parsed: offset 124, len 4: [3] string_data_off: 340 (0x000154) "T_f1_8.java"
    54 01 00 00 
// parsed: offset 128, len 4: [4] string_data_off: 353 (0x000161) "V"
    61 01 00 00 
// parsed: offset 132, len 4: [5] string_data_off: 356 (0x000164) "run"
    64 01 00 00 

// type_ids:
// parsed: offset 136, len 4: [0] descriptor_idx: 1 (0x000001) "Ldot/junit/format/f1/d/T_f1_8;"
    01 00 00 00 
// parsed: offset 140, len 4: [1] descriptor_idx: 2 (0x000002) "Ljava/lang/Object;"
    02 00 00 00 
// parsed: offset 144, len 4: [2] descriptor_idx: 4 (0x000004) "V"
    04 00 00 00 

// proto_ids:
// parsed: offset 148, len 12: [0] 
//     shorty_idx: 4 (0x000004) "V"
//     return_type_idx: 2 (0x000002) "V"
//     parameters_off: 0 (0x000000)
    04 00 00 00 02 00 00 00 00 00 00 00 

// field_ids:

// methods_ids:
// parsed: offset 160, len 8: [0] class_idx: 0 (0x000000)  proto_idx: 0 (0x000000) name_idx: 0 (0x000000) "<init>"
    00 00 00 00 00 00 00 00 
// parsed: offset 168, len 8: [1] class_idx: 0 (0x000000)  proto_idx: 0 (0x000000) name_idx: 5 (0x000005) "run"
    00 00 00 00 05 00 00 00 
// parsed: offset 176, len 8: [2] class_idx: 1 (0x000001)  proto_idx: 0 (0x000000) name_idx: 0 (0x000000) "<init>"
    01 00 00 00 00 00 00 00 

// class_defs:
// parsed: offset 184, len 32: Class [0]
//     class_idx: 0 "Ldot/junit/format/f1/d/T_f1_8;"
//     access_flags: 0x000001 (PUBLIC)
//     superclass_idx: 1 "Ljava/lang/Object;"
//     interfaces_off: 0 (0x000000)
//     source_file_idx: 3 "T_f1_8.java"
//     annotations_off: 0 (0x000000)
//     class_data_off: 361 (0x000169)
//     static_values_off: 0 (0x000000)
//@mod    00 00 00 00 01 00 00 00 01 00 00 00 00 00 00 00 03 00 00 00 00 00 00 00 69 01 00 00 00 00 00 00 
    00 00 00 00 00 00 00 00 00 00 00 00 00 00 00 00 00 00 00 00 00 00 00 00 00 00 00 00 00 00 00 00 
// data_section:
// CODE_ITEM for "dot.junit.format.f1.d.T_f1_8.<init>"
    // parsed: offset 216, len 2: registers_size: 1
        01 00 
    // parsed: offset 218, len 2: ins_size: 1
        01 00 
    // parsed: offset 220, len 2: outs_size: 1
        01 00 
    // parsed: offset 222, len 2: tries_size: 0
        00 00 
    // parsed: offset 224, len 4: debug_info_off: 0 (0x000000)
        00 00 00 00 
    // parsed: offset 228, len 4: insns_size: 4
        04 00 00 00 
    // insns:
        // parsed: offset 232, len 6: |0000: invoke-direct {v0}, Ljava/lang/Object;.<init>:()V // method@0002
            70 10 02 00 00 00 
        // parsed: offset 238, len 2: |0003: return-void
            0E 00 
    // tries: 
    // handlers: 
// CODE_ITEM for "dot.junit.format.f1.d.T_f1_8.run"
    // parsed: offset 240, len 2: registers_size: 3
        03 00 
    // parsed: offset 242, len 2: ins_size: 1
        01 00 
    // parsed: offset 244, len 2: outs_size: 0
        00 00 
    // parsed: offset 246, len 2: tries_size: 0
        00 00 
    // parsed: offset 248, len 4: debug_info_off: 0 (0x000000)
        00 00 00 00 
    // parsed: offset 252, len 4: insns_size: 11
        0B 00 00 00 
    // insns:
        // parsed: offset 256, len 6: |0000: const v0, #float 0.000000 // #0x0000007b int
            14 00 7B 00 00 00 
        // parsed: offset 262, len 2: |0003: nop // spacer
            00 00 
        // parsed: offset 264, len 2: |0004: nop // spacer
            00 00 
        // parsed: offset 266, len 2: |0005: nop // spacer
            00 00 
        // parsed: offset 268, len 2: |0006: nop // spacer
            00 00 
        // parsed: offset 270, len 6: |0007: const v2, #float 0.000000 // #0x000001c8 int
            14 02 C8 01 00 00 
        // parsed: offset 276, len 2: |000a: return-void
            0E 00 
    // tries: 
    // handlers: 
// parsed: offset 278, len 2: PADDING
    00 00 
// parsed: offset 280, len 8: TYPE_STRING_DATA_ITEM [0] "<init>"
    06 3C 69 6E 69 74 3E 00 
// parsed: offset 288, len 32: TYPE_STRING_DATA_ITEM [1] "Ldot/junit/format/f1/d/T_f1_8;"
    1E 4C 64 6F 74 2F 6A 75 6E 69 74 2F 66 6F 72 6D 61 74 2F 66 31 2F 64 2F 54 5F 66 31 5F 38 3B 00 
// parsed: offset 320, len 20: TYPE_STRING_DATA_ITEM [2] "Ljava/lang/Object;"
    12 4C 6A 61 76 61 2F 6C 61 6E 67 2F 4F 62 6A 65 63 74 3B 00 
// parsed: offset 340, len 13: TYPE_STRING_DATA_ITEM [3] "T_f1_8.java"
    0B 54 5F 66 31 5F 38 2E 6A 61 76 61 00 
// parsed: offset 353, len 3: TYPE_STRING_DATA_ITEM [4] "V"
    01 56 00 
// parsed: offset 356, len 5: TYPE_STRING_DATA_ITEM [5] "run"
    03 72 75 6E 00 
// CLASS_DATA_ITEM for class [0] "Ldot/junit/format/f1/d/T_f1_8;"
    // parsed: offset 361, len 1: static_fields_size: 0
        00 
    // parsed: offset 362, len 1: instance_fields_size: 0
        00 
    // parsed: offset 363, len 1: direct_methods_size: 1
        01 
    // parsed: offset 364, len 1: virtual_methods_size: 1
        01 
    // static_fields:
    // instance_fields:
    // direct_methods:
        // method [0]:
            // parsed: offset 365, len 1: method_idx_diff: 0 (method_idx: 0 "<init>")
                00 
            // parsed: offset 366, len 3: access_flags: 0x010001 (PUBLIC CONSTRUCTOR)
                81 80 04 
            // parsed: offset 369, len 2: code_off: 216 (0x0000d8)
                D8 01 
    // virtual_methods:
        // method [0]:
            // parsed: offset 371, len 1: method_idx_diff: 1 (method_idx: 1 "run")
                01 
            // parsed: offset 372, len 1: access_flags: 0x000001 (PUBLIC)
                01 
            // parsed: offset 373, len 2: code_off: 240 (0x0000f0)
                F0 01 
// parsed: offset 375, len 1: PADDING
    00 
// map_list:
    // parsed: offset 376, len 4: size: 10
        0A 00 00 00 
    // parsed: offset 380, len 12: [0] type: 0x0000 TYPE_HEADER_ITEM
    //      unused: 0
    //      size: 1
    //      offset: 0 (0x000000)
        00 00 00 00 01 00 00 00 00 00 00 00 
    // parsed: offset 392, len 12: [1] type: 0x0001 TYPE_STRING_ID_ITEM
    //      unused: 0
    //      size: 6
    //      offset: 112 (0x000070)
        01 00 00 00 06 00 00 00 70 00 00 00 
    // parsed: offset 404, len 12: [2] type: 0x0002 TYPE_TYPE_ID_ITEM
    //      unused: 0
    //      size: 3
    //      offset: 136 (0x000088)
        02 00 00 00 03 00 00 00 88 00 00 00 
    // parsed: offset 416, len 12: [3] type: 0x0003 TYPE_PROTO_ID_ITEM
    //      unused: 0
    //      size: 1
    //      offset: 148 (0x000094)
        03 00 00 00 01 00 00 00 94 00 00 00 
    // parsed: offset 428, len 12: [4] type: 0x0005 TYPE_METHOD_ID_ITEM
    //      unused: 0
    //      size: 3
    //      offset: 160 (0x0000a0)
        05 00 00 00 03 00 00 00 A0 00 00 00 
    // parsed: offset 440, len 12: [5] type: 0x0006 TYPE_CLASS_DEF_ITEM
    //      unused: 0
    //      size: 1
    //      offset: 184 (0x0000b8)
//@mod        06 00 00 00 01 00 00 00 B8 00 00 00 
        06 00 00 00 00 00 00 00 B8 00 00 00 
    // parsed: offset 452, len 12: [6] type: 0x2001 TYPE_CODE_ITEM
    //      unused: 0
    //      size: 2
    //      offset: 216 (0x0000d8)
        01 20 00 00 02 00 00 00 D8 00 00 00 
    // parsed: offset 464, len 12: [7] type: 0x2002 TYPE_STRING_DATA_ITEM
    //      unused: 0
    //      size: 6
    //      offset: 280 (0x000118)
        02 20 00 00 06 00 00 00 18 01 00 00 
    // parsed: offset 476, len 12: [8] type: 0x2000 TYPE_CLASS_DATA_ITEM
    //      unused: 0
    //      size: 1
    //      offset: 361 (0x000169)
        00 20 00 00 01 00 00 00 69 01 00 00 
    // parsed: offset 488, len 12: [9] type: 0x1000 TYPE_MAP_LIST
    //      unused: 0
    //      size: 1
    //      offset: 376 (0x000178)
        00 10 00 00 01 00 00 00 78 01 00 00 
